* NGSPICE file created from test_counter.ext - technology: gf180mcuD
.subckt test_counter VDD VSS clk counter[0] counter[10] counter[11] counter[1] counter[2]
+ counter[3] counter[4] counter[5] counter[6] counter[7] counter[8] counter[9] rst
XFILLER_22_177 VDD VDD VSS VSS gf180mcu_as_sc_mcu7t3v3__fillcap_16
XFILLER_22_155 VDD VDD VSS VSS gf180mcu_as_sc_mcu7t3v3__fillcap_16
XFILLER_10_317 VDD VDD VSS VSS gf180mcu_as_sc_mcu7t3v3__fillcap_8
X_83_ VDD VDD VSS VSS _86_/A _84_/B _99_/Q gf180mcu_as_sc_mcu7t3v3__nor2_2
XFILLER_36_225 VDD VDD VSS VSS gf180mcu_as_sc_mcu7t3v3__fillcap_8
XFILLER_26_85 VDD VDD VSS VSS gf180mcu_as_sc_mcu7t3v3__fillcap_16
XTAP_TAPCELL_ROW_23_194 VDD VSS gf180mcu_as_sc_mcu7t3v3__tap_2
XFILLER_3_34 VDD VDD VSS VSS gf180mcu_as_sc_mcu7t3v3__fillcap_16
XFILLER_9_104 VDD VDD VSS VSS gf180mcu_as_sc_mcu7t3v3__fillcap_16
XTAP_TAPCELL_ROW_6_118 VDD VSS gf180mcu_as_sc_mcu7t3v3__tap_2
XFILLER_33_228 VDD VDD VSS VSS gf180mcu_as_sc_mcu7t3v3__fillcap_8
XTAP_TAPCELL_ROW_28_220 VDD VSS gf180mcu_as_sc_mcu7t3v3__tap_2
XFILLER_18_247 VDD VDD VSS VSS gf180mcu_as_sc_mcu7t3v3__fillcap_16
XFILLER_18_225 VDD VDD VSS VSS gf180mcu_as_sc_mcu7t3v3__fillcap_16
XFILLER_6_107 VDD VDD VSS VSS gf180mcu_as_sc_mcu7t3v3__fillcap_16
X_66_ VDD VDD VSS VSS _66_/A _66_/B _70_/B _67_/B gf180mcu_as_sc_mcu7t3v3__nor3_2
XTAP_TAPCELL_ROW_34_245 VDD VSS gf180mcu_as_sc_mcu7t3v3__tap_2
XFILLER_32_294 VDD VDD VSS VSS gf180mcu_as_sc_mcu7t3v3__fillcap_16
XTAP_TAPCELL_ROW_11_142 VDD VSS gf180mcu_as_sc_mcu7t3v3__tap_2
XFILLER_15_228 VDD VDD VSS VSS gf180mcu_as_sc_mcu7t3v3__fillcap_16
XFILLER_15_206 VDD VDD VSS VSS gf180mcu_as_sc_mcu7t3v3__fillcap_4
XFILLER_9_66 VDD VDD VSS VSS gf180mcu_as_sc_mcu7t3v3__fillcap_4
XFILLER_9_88 VDD VDD VSS VSS gf180mcu_as_sc_mcu7t3v3__fillcap_16
X_49_ VDD VDD VSS VSS _90_/D _49_/B _52_/A gf180mcu_as_sc_mcu7t3v3__nor2_2
XFILLER_12_209 VDD VDD VSS VSS gf180mcu_as_sc_mcu7t3v3__fillcap_16
XFILLER_34_85 VDD VDD VSS VSS gf180mcu_as_sc_mcu7t3v3__fillcap_16
XFILLER_18_53 VDD VDD VSS VSS gf180mcu_as_sc_mcu7t3v3__fillcap_16
XFILLER_31_326 VDD VDD VSS VSS gf180mcu_as_sc_mcu7t3v3__fillcap_4
XPHY_EDGE_ROW_16_Left_59 VDD VSS gf180mcu_as_sc_mcu7t3v3__tap_2
XFILLER_3_260 VDD VDD VSS VSS gf180mcu_as_sc_mcu7t3v3__fillcap_16
XFILLER_3_282 VDD VDD VSS VSS gf180mcu_as_sc_mcu7t3v3__fillcap_16
XFILLER_6_34 VDD VDD VSS VSS gf180mcu_as_sc_mcu7t3v3__fill_1
XFILLER_40_189 VDD VDD VSS VSS gf180mcu_as_sc_mcu7t3v3__fill_1
XFILLER_40_123 VDD VDD VSS VSS gf180mcu_as_sc_mcu7t3v3__fillcap_16
XFILLER_25_142 VDD VDD VSS VSS gf180mcu_as_sc_mcu7t3v3__fillcap_16
XFILLER_25_120 VDD VDD VSS VSS gf180mcu_as_sc_mcu7t3v3__fillcap_16
Xoutput7 VDD VDD VSS VSS _91_/Q counter[3] gf180mcu_as_sc_mcu7t3v3__buff_16
XFILLER_0_274 VDD VDD VSS VSS gf180mcu_as_sc_mcu7t3v3__fillcap_16
XFILLER_39_212 VDD VDD VSS VSS gf180mcu_as_sc_mcu7t3v3__fillcap_16
XFILLER_22_123 VDD VDD VSS VSS gf180mcu_as_sc_mcu7t3v3__fillcap_16
XFILLER_22_101 VDD VDD VSS VSS gf180mcu_as_sc_mcu7t3v3__fillcap_4
XTAP_TAPCELL_ROW_17_170 VDD VSS gf180mcu_as_sc_mcu7t3v3__tap_2
XFILLER_10_329 VDD VDD VSS VSS gf180mcu_as_sc_mcu7t3v3__fill_2
XFILLER_42_52 VDD VDD VSS VSS gf180mcu_as_sc_mcu7t3v3__fillcap_4
XFILLER_26_53 VDD VDD VSS VSS gf180mcu_as_sc_mcu7t3v3__fillcap_16
XTAP_TAPCELL_ROW_23_195 VDD VSS gf180mcu_as_sc_mcu7t3v3__tap_2
XFILLER_36_237 VDD VDD VSS VSS gf180mcu_as_sc_mcu7t3v3__fill_2
X_82_ VDD VDD VSS VSS _82_/A _98_/D gf180mcu_as_sc_mcu7t3v3__buff_8
XTAP_TAPCELL_ROW_6_119 VDD VSS gf180mcu_as_sc_mcu7t3v3__tap_2
XFILLER_8_171 VDD VDD VSS VSS gf180mcu_as_sc_mcu7t3v3__fillcap_4
XFILLER_8_193 VDD VDD VSS VSS gf180mcu_as_sc_mcu7t3v3__fillcap_16
XFILLER_37_52 VDD VDD VSS VSS gf180mcu_as_sc_mcu7t3v3__fillcap_16
XPHY_EDGE_ROW_19_Left_62 VDD VSS gf180mcu_as_sc_mcu7t3v3__tap_2
XFILLER_2_325 VDD VDD VSS VSS gf180mcu_as_sc_mcu7t3v3__fillcap_4
X_65_ VDD VDD VSS VSS _70_/B _94_/Q _93_/Q gf180mcu_as_sc_mcu7t3v3__nand2_2
XTAP_TAPCELL_ROW_34_246 VDD VSS gf180mcu_as_sc_mcu7t3v3__tap_2
XTAP_TAPCELL_ROW_11_143 VDD VSS gf180mcu_as_sc_mcu7t3v3__tap_2
XFILLER_5_174 VDD VDD VSS VSS gf180mcu_as_sc_mcu7t3v3__fillcap_16
XPHY_EDGE_ROW_21_Right_21 VDD VSS gf180mcu_as_sc_mcu7t3v3__tap_2
XPHY_EDGE_ROW_12_Right_12 VDD VSS gf180mcu_as_sc_mcu7t3v3__tap_2
XTAP_TAPCELL_ROW_2_100 VDD VSS gf180mcu_as_sc_mcu7t3v3__tap_2
XPHY_EDGE_ROW_4_Left_47 VDD VSS gf180mcu_as_sc_mcu7t3v3__tap_2
XPHY_EDGE_ROW_30_Right_30 VDD VSS gf180mcu_as_sc_mcu7t3v3__tap_2
XFILLER_14_295 VDD VDD VSS VSS gf180mcu_as_sc_mcu7t3v3__fillcap_16
XFILLER_2_177 VDD VDD VSS VSS gf180mcu_as_sc_mcu7t3v3__fillcap_16
XFILLER_2_155 VDD VDD VSS VSS gf180mcu_as_sc_mcu7t3v3__fillcap_16
XFILLER_0_36 VDD VDD VSS VSS gf180mcu_as_sc_mcu7t3v3__fillcap_16
XFILLER_3_2 VDD VDD VSS VSS gf180mcu_as_sc_mcu7t3v3__fillcap_16
XFILLER_9_34 VDD VDD VSS VSS gf180mcu_as_sc_mcu7t3v3__fillcap_16
X_48_ VDD VDD VSS VSS _50_/B _90_/Q _49_/B gf180mcu_as_sc_mcu7t3v3__xnor2_2
XFILLER_36_2 VDD VDD VSS VSS gf180mcu_as_sc_mcu7t3v3__fillcap_16
XTAP_TAPCELL_ROW_0_90 VDD VSS gf180mcu_as_sc_mcu7t3v3__tap_2
XFILLER_34_53 VDD VDD VSS VSS gf180mcu_as_sc_mcu7t3v3__fillcap_16
XFILLER_11_298 VDD VDD VSS VSS gf180mcu_as_sc_mcu7t3v3__fillcap_16
XFILLER_11_276 VDD VDD VSS VSS gf180mcu_as_sc_mcu7t3v3__fillcap_4
XFILLER_38_107 VDD VDD VSS VSS gf180mcu_as_sc_mcu7t3v3__fillcap_16
XPHY_EDGE_ROW_7_Left_50 VDD VSS gf180mcu_as_sc_mcu7t3v3__tap_2
XFILLER_15_66 VDD VDD VSS VSS gf180mcu_as_sc_mcu7t3v3__fillcap_4
XPHY_EDGE_ROW_6_Right_6 VDD VSS gf180mcu_as_sc_mcu7t3v3__tap_2
Xoutput10 VDD VDD VSS VSS _94_/Q counter[6] gf180mcu_as_sc_mcu7t3v3__buff_16
Xoutput8 VDD VDD VSS VSS _92_/Q counter[4] gf180mcu_as_sc_mcu7t3v3__buff_16
XPHY_EDGE_ROW_33_Left_76 VDD VSS gf180mcu_as_sc_mcu7t3v3__tap_2
XFILLER_15_88 VDD VDD VSS VSS gf180mcu_as_sc_mcu7t3v3__fillcap_16
XFILLER_39_279 VDD VDD VSS VSS gf180mcu_as_sc_mcu7t3v3__fill_1
XTAP_TAPCELL_ROW_23_196 VDD VSS gf180mcu_as_sc_mcu7t3v3__tap_2
XFILLER_21_190 VDD VDD VSS VSS gf180mcu_as_sc_mcu7t3v3__fillcap_16
X_81_ VDD VDD VSS VSS _81_/S _81_/B _81_/A _82_/A gf180mcu_as_sc_mcu7t3v3__mux2_2
XFILLER_35_282 VDD VDD VSS VSS gf180mcu_as_sc_mcu7t3v3__fillcap_16
XFILLER_35_260 VDD VDD VSS VSS gf180mcu_as_sc_mcu7t3v3__fillcap_16
XFILLER_12_34 VDD VDD VSS VSS gf180mcu_as_sc_mcu7t3v3__fill_1
X_64_ VDD VDD VSS VSS _94_/D _64_/B _68_/A gf180mcu_as_sc_mcu7t3v3__nor2_2
XFILLER_5_120 VDD VDD VSS VSS gf180mcu_as_sc_mcu7t3v3__fillcap_16
XFILLER_5_142 VDD VDD VSS VSS gf180mcu_as_sc_mcu7t3v3__fillcap_16
XTAP_TAPCELL_ROW_42_280 VDD VSS gf180mcu_as_sc_mcu7t3v3__tap_2
XTAP_TAPCELL_ROW_34_247 VDD VSS gf180mcu_as_sc_mcu7t3v3__tap_2
XFILLER_32_263 VDD VDD VSS VSS gf180mcu_as_sc_mcu7t3v3__fillcap_16
XTAP_TAPCELL_ROW_25_203 VDD VSS gf180mcu_as_sc_mcu7t3v3__tap_2
XPHY_EDGE_ROW_20_Left_63 VDD VSS gf180mcu_as_sc_mcu7t3v3__tap_2
XFILLER_17_282 VDD VDD VSS VSS gf180mcu_as_sc_mcu7t3v3__fillcap_16
XFILLER_17_260 VDD VDD VSS VSS gf180mcu_as_sc_mcu7t3v3__fillcap_16
XTAP_TAPCELL_ROW_2_101 VDD VSS gf180mcu_as_sc_mcu7t3v3__tap_2
XFILLER_23_88 VDD VDD VSS VSS gf180mcu_as_sc_mcu7t3v3__fillcap_16
XFILLER_23_66 VDD VDD VSS VSS gf180mcu_as_sc_mcu7t3v3__fillcap_4
XFILLER_14_263 VDD VDD VSS VSS gf180mcu_as_sc_mcu7t3v3__fillcap_16
XFILLER_14_241 VDD VDD VSS VSS gf180mcu_as_sc_mcu7t3v3__fillcap_4
XFILLER_2_123 VDD VDD VSS VSS gf180mcu_as_sc_mcu7t3v3__fillcap_16
XFILLER_2_101 VDD VDD VSS VSS gf180mcu_as_sc_mcu7t3v3__fillcap_4
X_47_ VDD VDD VSS VSS _89_/Q _54_/A _50_/B gf180mcu_as_sc_mcu7t3v3__and2_2
XFILLER_29_2 VDD VDD VSS VSS gf180mcu_as_sc_mcu7t3v3__fillcap_16
XTAP_TAPCELL_ROW_0_91 VDD VSS gf180mcu_as_sc_mcu7t3v3__tap_2
XFILLER_28_311 VDD VDD VSS VSS gf180mcu_as_sc_mcu7t3v3__fillcap_4
XFILLER_11_244 VDD VDD VSS VSS gf180mcu_as_sc_mcu7t3v3__fillcap_16
XFILLER_34_325 VDD VDD VSS VSS gf180mcu_as_sc_mcu7t3v3__fillcap_4
XFILLER_34_314 VDD VDD VSS VSS gf180mcu_as_sc_mcu7t3v3__fill_1
XFILLER_40_317 VDD VDD VSS VSS gf180mcu_as_sc_mcu7t3v3__fillcap_8
XFILLER_25_314 VDD VDD VSS VSS gf180mcu_as_sc_mcu7t3v3__fillcap_16
XFILLER_20_34 VDD VDD VSS VSS gf180mcu_as_sc_mcu7t3v3__fill_1
XFILLER_16_325 VDD VDD VSS VSS gf180mcu_as_sc_mcu7t3v3__fillcap_4
XFILLER_6_69 VDD VDD VSS VSS gf180mcu_as_sc_mcu7t3v3__fillcap_16
XFILLER_34_177 VDD VDD VSS VSS gf180mcu_as_sc_mcu7t3v3__fillcap_16
XFILLER_22_317 VDD VDD VSS VSS gf180mcu_as_sc_mcu7t3v3__fillcap_8
XFILLER_19_174 VDD VDD VSS VSS gf180mcu_as_sc_mcu7t3v3__fillcap_16
Xoutput11 VDD VDD VSS VSS _95_/Q counter[7] gf180mcu_as_sc_mcu7t3v3__buff_16
Xoutput9 VDD VDD VSS VSS _93_/Q counter[5] gf180mcu_as_sc_mcu7t3v3__buff_16
XFILLER_31_88 VDD VDD VSS VSS gf180mcu_as_sc_mcu7t3v3__fillcap_4
XFILLER_31_66 VDD VDD VSS VSS gf180mcu_as_sc_mcu7t3v3__fillcap_4
XFILLER_16_155 VDD VDD VSS VSS gf180mcu_as_sc_mcu7t3v3__fillcap_16
XFILLER_15_34 VDD VDD VSS VSS gf180mcu_as_sc_mcu7t3v3__fillcap_16
XFILLER_39_236 VDD VDD VSS VSS gf180mcu_as_sc_mcu7t3v3__fill_2
XFILLER_31_158 VDD VDD VSS VSS gf180mcu_as_sc_mcu7t3v3__fillcap_16
XFILLER_16_177 VDD VDD VSS VSS gf180mcu_as_sc_mcu7t3v3__fillcap_16
XFILLER_11_2 VDD VDD VSS VSS gf180mcu_as_sc_mcu7t3v3__fillcap_16
XTAP_TAPCELL_ROW_23_197 VDD VSS gf180mcu_as_sc_mcu7t3v3__tap_2
XFILLER_13_158 VDD VDD VSS VSS gf180mcu_as_sc_mcu7t3v3__fillcap_16
XFILLER_13_136 VDD VDD VSS VSS gf180mcu_as_sc_mcu7t3v3__fillcap_4
X_80_ VDD VDD VSS VSS _80_/A _97_/Q _85_/D _81_/S gf180mcu_as_sc_mcu7t3v3__nand3_2
XTAP_TAPCELL_ROW_14_153 VDD VSS gf180mcu_as_sc_mcu7t3v3__tap_2
XFILLER_27_228 VDD VDD VSS VSS gf180mcu_as_sc_mcu7t3v3__fillcap_16
XFILLER_27_206 VDD VDD VSS VSS gf180mcu_as_sc_mcu7t3v3__fillcap_4
XFILLER_10_139 VDD VDD VSS VSS gf180mcu_as_sc_mcu7t3v3__fillcap_16
XFILLER_33_209 VDD VDD VSS VSS gf180mcu_as_sc_mcu7t3v3__fill_1
XTAP_TAPCELL_ROW_42_281 VDD VSS gf180mcu_as_sc_mcu7t3v3__tap_2
XFILLER_32_231 VDD VDD VSS VSS gf180mcu_as_sc_mcu7t3v3__fillcap_4
X_63_ VDD VDD VSS VSS _63_/B _94_/Q _64_/B gf180mcu_as_sc_mcu7t3v3__xnor2_2
XFILLER_24_209 VDD VDD VSS VSS gf180mcu_as_sc_mcu7t3v3__fillcap_16
XTAP_TAPCELL_ROW_2_102 VDD VSS gf180mcu_as_sc_mcu7t3v3__tap_2
XTAP_TAPCELL_ROW_25_204 VDD VSS gf180mcu_as_sc_mcu7t3v3__tap_2
XFILLER_23_34 VDD VDD VSS VSS gf180mcu_as_sc_mcu7t3v3__fillcap_16
X_46_ VDD VDD VSS VSS _89_/D _46_/B _52_/A gf180mcu_as_sc_mcu7t3v3__nor2_2
XTAP_TAPCELL_ROW_0_92 VDD VSS gf180mcu_as_sc_mcu7t3v3__tap_2
XFILLER_1_190 VDD VDD VSS VSS gf180mcu_as_sc_mcu7t3v3__fillcap_16
XFILLER_18_34 VDD VDD VSS VSS gf180mcu_as_sc_mcu7t3v3__fill_1
XFILLER_11_212 VDD VDD VSS VSS gf180mcu_as_sc_mcu7t3v3__fillcap_16
XFILLER_41_2 VDD VDD VSS VSS gf180mcu_as_sc_mcu7t3v3__fillcap_16
XFILLER_40_329 VDD VDD VSS VSS gf180mcu_as_sc_mcu7t3v3__fill_2
XFILLER_37_153 VDD VDD VSS VSS gf180mcu_as_sc_mcu7t3v3__fill_2
XFILLER_29_88 VDD VDD VSS VSS gf180mcu_as_sc_mcu7t3v3__fillcap_16
XFILLER_29_66 VDD VDD VSS VSS gf180mcu_as_sc_mcu7t3v3__fillcap_4
XFILLER_6_37 VDD VDD VSS VSS gf180mcu_as_sc_mcu7t3v3__fillcap_16
XFILLER_34_123 VDD VDD VSS VSS gf180mcu_as_sc_mcu7t3v3__fillcap_16
XFILLER_34_101 VDD VDD VSS VSS gf180mcu_as_sc_mcu7t3v3__fillcap_4
XFILLER_22_329 VDD VDD VSS VSS gf180mcu_as_sc_mcu7t3v3__fill_2
XFILLER_19_142 VDD VDD VSS VSS gf180mcu_as_sc_mcu7t3v3__fillcap_16
XFILLER_19_120 VDD VDD VSS VSS gf180mcu_as_sc_mcu7t3v3__fillcap_16
Xoutput12 VDD VDD VSS VSS _85_/A counter[8] gf180mcu_as_sc_mcu7t3v3__buff_16
XFILLER_40_104 VDD VDD VSS VSS gf180mcu_as_sc_mcu7t3v3__fill_1
XFILLER_31_34 VDD VDD VSS VSS gf180mcu_as_sc_mcu7t3v3__fillcap_16
XFILLER_0_222 VDD VDD VSS VSS gf180mcu_as_sc_mcu7t3v3__fillcap_16
XFILLER_31_137 VDD VDD VSS VSS gf180mcu_as_sc_mcu7t3v3__fill_2
XFILLER_16_123 VDD VDD VSS VSS gf180mcu_as_sc_mcu7t3v3__fillcap_16
XFILLER_16_101 VDD VDD VSS VSS gf180mcu_as_sc_mcu7t3v3__fillcap_4
XFILLER_8_311 VDD VDD VSS VSS gf180mcu_as_sc_mcu7t3v3__fillcap_4
XFILLER_26_34 VDD VDD VSS VSS gf180mcu_as_sc_mcu7t3v3__fill_1
XFILLER_13_104 VDD VDD VSS VSS gf180mcu_as_sc_mcu7t3v3__fillcap_16
XFILLER_42_99 VDD VDD VSS VSS gf180mcu_as_sc_mcu7t3v3__fill_2
XFILLER_42_33 VDD VDD VSS VSS gf180mcu_as_sc_mcu7t3v3__fill_1
XTAP_TAPCELL_ROW_14_154 VDD VSS gf180mcu_as_sc_mcu7t3v3__tap_2
XFILLER_5_314 VDD VDD VSS VSS gf180mcu_as_sc_mcu7t3v3__fillcap_16
XTAP_TAPCELL_ROW_8_130 VDD VSS gf180mcu_as_sc_mcu7t3v3__tap_2
XTAP_TAPCELL_ROW_37_257 VDD VSS gf180mcu_as_sc_mcu7t3v3__tap_2
XFILLER_10_107 VDD VDD VSS VSS gf180mcu_as_sc_mcu7t3v3__fillcap_16
XFILLER_41_298 VDD VDD VSS VSS gf180mcu_as_sc_mcu7t3v3__fillcap_16
XFILLER_41_276 VDD VDD VSS VSS gf180mcu_as_sc_mcu7t3v3__fillcap_4
XFILLER_37_22 VDD VDD VSS VSS gf180mcu_as_sc_mcu7t3v3__fill_2
XFILLER_26_295 VDD VDD VSS VSS gf180mcu_as_sc_mcu7t3v3__fillcap_16
XFILLER_2_317 VDD VDD VSS VSS gf180mcu_as_sc_mcu7t3v3__fillcap_8
XFILLER_12_69 VDD VDD VSS VSS gf180mcu_as_sc_mcu7t3v3__fillcap_16
XTAP_TAPCELL_ROW_42_282 VDD VSS gf180mcu_as_sc_mcu7t3v3__tap_2
X_62_ VDD VDD VSS VSS _66_/A _62_/B _66_/B _63_/B gf180mcu_as_sc_mcu7t3v3__nor3_2
XTAP_TAPCELL_ROW_25_205 VDD VSS gf180mcu_as_sc_mcu7t3v3__tap_2
XFILLER_23_298 VDD VDD VSS VSS gf180mcu_as_sc_mcu7t3v3__fillcap_16
XFILLER_23_276 VDD VDD VSS VSS gf180mcu_as_sc_mcu7t3v3__fillcap_4
XTAP_TAPCELL_ROW_2_103 VDD VSS gf180mcu_as_sc_mcu7t3v3__tap_2
XTAP_TAPCELL_ROW_0_93 VDD VSS gf180mcu_as_sc_mcu7t3v3__tap_2
X_45_ VDD VDD VSS VSS _89_/Q _54_/A _46_/B gf180mcu_as_sc_mcu7t3v3__xnor2_2
XFILLER_20_279 VDD VDD VSS VSS gf180mcu_as_sc_mcu7t3v3__fillcap_16
XFILLER_34_34 VDD VDD VSS VSS gf180mcu_as_sc_mcu7t3v3__fill_1
XFILLER_1_2 VDD VDD VSS VSS gf180mcu_as_sc_mcu7t3v3__fillcap_16
XFILLER_7_206 VDD VDD VSS VSS gf180mcu_as_sc_mcu7t3v3__fillcap_4
XFILLER_7_228 VDD VDD VSS VSS gf180mcu_as_sc_mcu7t3v3__fillcap_16
XFILLER_40_308 VDD VDD VSS VSS gf180mcu_as_sc_mcu7t3v3__fillcap_4
XFILLER_34_2 VDD VDD VSS VSS gf180mcu_as_sc_mcu7t3v3__fillcap_16
XFILLER_29_34 VDD VDD VSS VSS gf180mcu_as_sc_mcu7t3v3__fillcap_16
XFILLER_20_69 VDD VDD VSS VSS gf180mcu_as_sc_mcu7t3v3__fillcap_16
XFILLER_4_209 VDD VDD VSS VSS gf180mcu_as_sc_mcu7t3v3__fillcap_16
XFILLER_34_168 VDD VDD VSS VSS gf180mcu_as_sc_mcu7t3v3__fillcap_4
Xoutput13 VDD VDD VSS VSS _97_/Q counter[9] gf180mcu_as_sc_mcu7t3v3__buff_16
XFILLER_21_330 VDD VDD VSS VSS gf180mcu_as_sc_mcu7t3v3__fill_1
XPHY_EDGE_ROW_28_Right_28 VDD VSS gf180mcu_as_sc_mcu7t3v3__tap_2
XPHY_EDGE_ROW_19_Right_19 VDD VSS gf180mcu_as_sc_mcu7t3v3__tap_2
XFILLER_0_256 VDD VDD VSS VSS gf180mcu_as_sc_mcu7t3v3__fillcap_16
XPHY_EDGE_ROW_37_Right_37 VDD VSS gf180mcu_as_sc_mcu7t3v3__tap_2
XFILLER_15_190 VDD VDD VSS VSS gf180mcu_as_sc_mcu7t3v3__fillcap_16
XFILLER_42_78 VDD VDD VSS VSS gf180mcu_as_sc_mcu7t3v3__fillcap_4
XFILLER_42_67 VDD VDD VSS VSS gf180mcu_as_sc_mcu7t3v3__fill_1
XFILLER_42_56 VDD VDD VSS VSS gf180mcu_as_sc_mcu7t3v3__fill_2
XFILLER_29_282 VDD VDD VSS VSS gf180mcu_as_sc_mcu7t3v3__fillcap_4
XTAP_TAPCELL_ROW_37_258 VDD VSS gf180mcu_as_sc_mcu7t3v3__tap_2
XTAP_TAPCELL_ROW_14_155 VDD VSS gf180mcu_as_sc_mcu7t3v3__tap_2
XFILLER_12_171 VDD VDD VSS VSS gf180mcu_as_sc_mcu7t3v3__fillcap_4
XFILLER_12_193 VDD VDD VSS VSS gf180mcu_as_sc_mcu7t3v3__fillcap_16
XFILLER_41_244 VDD VDD VSS VSS gf180mcu_as_sc_mcu7t3v3__fillcap_16
XFILLER_26_263 VDD VDD VSS VSS gf180mcu_as_sc_mcu7t3v3__fillcap_16
XFILLER_26_241 VDD VDD VSS VSS gf180mcu_as_sc_mcu7t3v3__fillcap_4
XFILLER_2_329 VDD VDD VSS VSS gf180mcu_as_sc_mcu7t3v3__fill_2
XFILLER_12_37 VDD VDD VSS VSS gf180mcu_as_sc_mcu7t3v3__fillcap_16
XTAP_TAPCELL_ROW_42_283 VDD VSS gf180mcu_as_sc_mcu7t3v3__tap_2
X_61_ VDD VDD VSS VSS _62_/B _93_/Q gf180mcu_as_sc_mcu7t3v3__inv_2
XTAP_TAPCELL_ROW_25_206 VDD VSS gf180mcu_as_sc_mcu7t3v3__tap_2
XFILLER_23_244 VDD VDD VSS VSS gf180mcu_as_sc_mcu7t3v3__fillcap_16
XPHY_EDGE_ROW_24_Left_67 VDD VSS gf180mcu_as_sc_mcu7t3v3__tap_2
XFILLER_0_18 VDD VDD VSS VSS gf180mcu_as_sc_mcu7t3v3__fillcap_16
X_44_ VDD VDD VSS VSS _88_/D _52_/A _54_/A gf180mcu_as_sc_mcu7t3v3__nor2_2
XFILLER_37_314 VDD VDD VSS VSS gf180mcu_as_sc_mcu7t3v3__fillcap_16
XFILLER_20_247 VDD VDD VSS VSS gf180mcu_as_sc_mcu7t3v3__fillcap_16
XFILLER_20_225 VDD VDD VSS VSS gf180mcu_as_sc_mcu7t3v3__fillcap_16
XTAP_TAPCELL_ROW_0_94 VDD VSS gf180mcu_as_sc_mcu7t3v3__tap_2
XFILLER_28_325 VDD VDD VSS VSS gf180mcu_as_sc_mcu7t3v3__fillcap_4
XFILLER_19_314 VDD VDD VSS VSS gf180mcu_as_sc_mcu7t3v3__fillcap_16
XFILLER_18_69 VDD VDD VSS VSS gf180mcu_as_sc_mcu7t3v3__fillcap_16
XFILLER_34_317 VDD VDD VSS VSS gf180mcu_as_sc_mcu7t3v3__fillcap_8
XFILLER_27_2 VDD VDD VSS VSS gf180mcu_as_sc_mcu7t3v3__fillcap_16
XFILLER_1_72 VDD VDD VSS VSS gf180mcu_as_sc_mcu7t3v3__fillcap_16
XFILLER_1_50 VDD VDD VSS VSS gf180mcu_as_sc_mcu7t3v3__fillcap_16
XFILLER_6_295 VDD VDD VSS VSS gf180mcu_as_sc_mcu7t3v3__fillcap_16
XFILLER_28_177 VDD VDD VSS VSS gf180mcu_as_sc_mcu7t3v3__fillcap_16
XFILLER_28_155 VDD VDD VSS VSS gf180mcu_as_sc_mcu7t3v3__fillcap_16
XFILLER_20_37 VDD VDD VSS VSS gf180mcu_as_sc_mcu7t3v3__fillcap_16
XFILLER_16_317 VDD VDD VSS VSS gf180mcu_as_sc_mcu7t3v3__fillcap_8
XFILLER_34_147 VDD VDD VSS VSS gf180mcu_as_sc_mcu7t3v3__fillcap_4
XFILLER_3_276 VDD VDD VSS VSS gf180mcu_as_sc_mcu7t3v3__fillcap_4
XFILLER_3_298 VDD VDD VSS VSS gf180mcu_as_sc_mcu7t3v3__fillcap_16
XFILLER_40_139 VDD VDD VSS VSS gf180mcu_as_sc_mcu7t3v3__fillcap_16
XPHY_EDGE_ROW_27_Left_70 VDD VSS gf180mcu_as_sc_mcu7t3v3__tap_2
XFILLER_25_158 VDD VDD VSS VSS gf180mcu_as_sc_mcu7t3v3__fillcap_16
XFILLER_25_136 VDD VDD VSS VSS gf180mcu_as_sc_mcu7t3v3__fillcap_4
XPHY_EDGE_ROW_11_Left_54 VDD VSS gf180mcu_as_sc_mcu7t3v3__tap_2
XFILLER_31_139 VDD VDD VSS VSS gf180mcu_as_sc_mcu7t3v3__fill_1
XFILLER_31_117 VDD VDD VSS VSS gf180mcu_as_sc_mcu7t3v3__fillcap_16
XFILLER_39_228 VDD VDD VSS VSS gf180mcu_as_sc_mcu7t3v3__fillcap_8
XFILLER_30_161 VDD VDD VSS VSS gf180mcu_as_sc_mcu7t3v3__fillcap_8
XFILLER_22_139 VDD VDD VSS VSS gf180mcu_as_sc_mcu7t3v3__fillcap_16
XFILLER_26_69 VDD VDD VSS VSS gf180mcu_as_sc_mcu7t3v3__fillcap_16
XFILLER_3_18 VDD VDD VSS VSS gf180mcu_as_sc_mcu7t3v3__fillcap_16
XFILLER_36_209 VDD VDD VSS VSS gf180mcu_as_sc_mcu7t3v3__fillcap_16
XFILLER_29_272 VDD VDD VSS VSS gf180mcu_as_sc_mcu7t3v3__fillcap_8
XTAP_TAPCELL_ROW_14_156 VDD VSS gf180mcu_as_sc_mcu7t3v3__tap_2
XTAP_TAPCELL_ROW_37_259 VDD VSS gf180mcu_as_sc_mcu7t3v3__tap_2
XFILLER_37_68 VDD VDD VSS VSS gf180mcu_as_sc_mcu7t3v3__fill_2
XFILLER_37_24 VDD VDD VSS VSS gf180mcu_as_sc_mcu7t3v3__fill_1
XFILLER_18_209 VDD VDD VSS VSS gf180mcu_as_sc_mcu7t3v3__fillcap_16
XTAP_TAPCELL_ROW_5_113 VDD VSS gf180mcu_as_sc_mcu7t3v3__tap_2
XFILLER_41_212 VDD VDD VSS VSS gf180mcu_as_sc_mcu7t3v3__fillcap_16
XFILLER_32_223 VDD VDD VSS VSS gf180mcu_as_sc_mcu7t3v3__fillcap_8
X_60_ VDD VDD VSS VSS _93_/D _60_/B _60_/A gf180mcu_as_sc_mcu7t3v3__nor2_2
XFILLER_1_330 VDD VDD VSS VSS gf180mcu_as_sc_mcu7t3v3__fill_1
XTAP_TAPCELL_ROW_42_284 VDD VSS gf180mcu_as_sc_mcu7t3v3__tap_2
XTAP_TAPCELL_ROW_33_240 VDD VSS gf180mcu_as_sc_mcu7t3v3__tap_2
XFILLER_23_212 VDD VDD VSS VSS gf180mcu_as_sc_mcu7t3v3__fillcap_16
XFILLER_9_260 VDD VDD VSS VSS gf180mcu_as_sc_mcu7t3v3__fillcap_16
XFILLER_9_282 VDD VDD VSS VSS gf180mcu_as_sc_mcu7t3v3__fillcap_16
XPHY_EDGE_ROW_41_Left_84 VDD VSS gf180mcu_as_sc_mcu7t3v3__tap_2
XFILLER_34_69 VDD VDD VSS VSS gf180mcu_as_sc_mcu7t3v3__fillcap_16
XFILLER_18_37 VDD VDD VSS VSS gf180mcu_as_sc_mcu7t3v3__fillcap_16
XFILLER_34_329 VDD VDD VSS VSS gf180mcu_as_sc_mcu7t3v3__fill_2
XFILLER_6_241 VDD VDD VSS VSS gf180mcu_as_sc_mcu7t3v3__fillcap_4
XFILLER_6_263 VDD VDD VSS VSS gf180mcu_as_sc_mcu7t3v3__fillcap_16
XFILLER_28_123 VDD VDD VSS VSS gf180mcu_as_sc_mcu7t3v3__fillcap_16
XFILLER_28_101 VDD VDD VSS VSS gf180mcu_as_sc_mcu7t3v3__fillcap_4
XFILLER_16_329 VDD VDD VSS VSS gf180mcu_as_sc_mcu7t3v3__fill_2
XFILLER_3_244 VDD VDD VSS VSS gf180mcu_as_sc_mcu7t3v3__fillcap_16
XFILLER_6_18 VDD VDD VSS VSS gf180mcu_as_sc_mcu7t3v3__fillcap_16
XFILLER_40_107 VDD VDD VSS VSS gf180mcu_as_sc_mcu7t3v3__fillcap_16
XFILLER_30_310 VDD VDD VSS VSS gf180mcu_as_sc_mcu7t3v3__fillcap_4
XFILLER_25_104 VDD VDD VSS VSS gf180mcu_as_sc_mcu7t3v3__fillcap_16
XPHY_EDGE_ROW_1_Right_1 VDD VSS gf180mcu_as_sc_mcu7t3v3__tap_2
XFILLER_8_325 VDD VDD VSS VSS gf180mcu_as_sc_mcu7t3v3__fillcap_4
XFILLER_30_173 VDD VDD VSS VSS gf180mcu_as_sc_mcu7t3v3__fill_2
XFILLER_22_107 VDD VDD VSS VSS gf180mcu_as_sc_mcu7t3v3__fillcap_16
XFILLER_7_50 VDD VDD VSS VSS gf180mcu_as_sc_mcu7t3v3__fillcap_16
XFILLER_7_72 VDD VDD VSS VSS gf180mcu_as_sc_mcu7t3v3__fillcap_16
XFILLER_42_58 VDD VDD VSS VSS gf180mcu_as_sc_mcu7t3v3__fill_1
XFILLER_42_36 VDD VDD VSS VSS gf180mcu_as_sc_mcu7t3v3__fillcap_16
XFILLER_38_240 VDD VDD VSS VSS gf180mcu_as_sc_mcu7t3v3__fillcap_4
XFILLER_26_37 VDD VDD VSS VSS gf180mcu_as_sc_mcu7t3v3__fillcap_16
XTAP_TAPCELL_ROW_22_190 VDD VSS gf180mcu_as_sc_mcu7t3v3__tap_2
XTAP_TAPCELL_ROW_14_157 VDD VSS gf180mcu_as_sc_mcu7t3v3__tap_2
XFILLER_8_155 VDD VDD VSS VSS gf180mcu_as_sc_mcu7t3v3__fillcap_16
XFILLER_8_177 VDD VDD VSS VSS gf180mcu_as_sc_mcu7t3v3__fillcap_16
XFILLER_35_298 VDD VDD VSS VSS gf180mcu_as_sc_mcu7t3v3__fillcap_16
XFILLER_35_276 VDD VDD VSS VSS gf180mcu_as_sc_mcu7t3v3__fillcap_4
XTAP_TAPCELL_ROW_5_114 VDD VSS gf180mcu_as_sc_mcu7t3v3__tap_2
XTAP_TAPCELL_ROW_28_216 VDD VSS gf180mcu_as_sc_mcu7t3v3__tap_2
XFILLER_5_136 VDD VDD VSS VSS gf180mcu_as_sc_mcu7t3v3__fillcap_4
XFILLER_5_158 VDD VDD VSS VSS gf180mcu_as_sc_mcu7t3v3__fillcap_16
XTAP_TAPCELL_ROW_42_285 VDD VSS gf180mcu_as_sc_mcu7t3v3__tap_2
XFILLER_32_279 VDD VDD VSS VSS gf180mcu_as_sc_mcu7t3v3__fillcap_8
XFILLER_32_235 VDD VDD VSS VSS gf180mcu_as_sc_mcu7t3v3__fill_2
XFILLER_17_298 VDD VDD VSS VSS gf180mcu_as_sc_mcu7t3v3__fillcap_16
XFILLER_17_276 VDD VDD VSS VSS gf180mcu_as_sc_mcu7t3v3__fillcap_4
XTAP_TAPCELL_ROW_33_241 VDD VSS gf180mcu_as_sc_mcu7t3v3__tap_2
XFILLER_14_279 VDD VDD VSS VSS gf180mcu_as_sc_mcu7t3v3__fillcap_16
XFILLER_2_139 VDD VDD VSS VSS gf180mcu_as_sc_mcu7t3v3__fillcap_16
XFILLER_9_18 VDD VDD VSS VSS gf180mcu_as_sc_mcu7t3v3__fillcap_16
XFILLER_34_37 VDD VDD VSS VSS gf180mcu_as_sc_mcu7t3v3__fillcap_16
XFILLER_40_91 VDD VDD VSS VSS gf180mcu_as_sc_mcu7t3v3__fill_2
XFILLER_37_113 VDD VDD VSS VSS gf180mcu_as_sc_mcu7t3v3__fillcap_16
XFILLER_33_330 VDD VDD VSS VSS gf180mcu_as_sc_mcu7t3v3__fill_1
XFILLER_3_212 VDD VDD VSS VSS gf180mcu_as_sc_mcu7t3v3__fillcap_16
XFILLER_32_2 VDD VDD VSS VSS gf180mcu_as_sc_mcu7t3v3__fillcap_16
XFILLER_27_190 VDD VDD VSS VSS gf180mcu_as_sc_mcu7t3v3__fillcap_16
XFILLER_15_330 VDD VDD VSS VSS gf180mcu_as_sc_mcu7t3v3__fill_1
Xclkbuf_0_clk VDD VDD VSS VSS clk clkbuf_0_clk/Y gf180mcu_as_sc_mcu7t3v3__clkbuff_12
XFILLER_24_193 VDD VDD VSS VSS gf180mcu_as_sc_mcu7t3v3__fillcap_16
XFILLER_24_171 VDD VDD VSS VSS gf180mcu_as_sc_mcu7t3v3__fillcap_4
XFILLER_12_311 VDD VDD VSS VSS gf180mcu_as_sc_mcu7t3v3__fillcap_4
XFILLER_38_263 VDD VDD VSS VSS gf180mcu_as_sc_mcu7t3v3__fillcap_16
XFILLER_30_185 VDD VDD VSS VSS gf180mcu_as_sc_mcu7t3v3__fillcap_16
XPHY_EDGE_ROW_24_Right_24 VDD VSS gf180mcu_as_sc_mcu7t3v3__tap_2
XFILLER_21_174 VDD VDD VSS VSS gf180mcu_as_sc_mcu7t3v3__fillcap_16
XPHY_EDGE_ROW_15_Right_15 VDD VSS gf180mcu_as_sc_mcu7t3v3__tap_2
XPHY_EDGE_ROW_42_Right_42 VDD VSS gf180mcu_as_sc_mcu7t3v3__tap_2
XPHY_EDGE_ROW_33_Right_33 VDD VSS gf180mcu_as_sc_mcu7t3v3__tap_2
XFILLER_29_230 VDD VDD VSS VSS gf180mcu_as_sc_mcu7t3v3__fill_1
XTAP_TAPCELL_ROW_22_191 VDD VSS gf180mcu_as_sc_mcu7t3v3__tap_2
XFILLER_8_101 VDD VDD VSS VSS gf180mcu_as_sc_mcu7t3v3__fillcap_4
XFILLER_8_123 VDD VDD VSS VSS gf180mcu_as_sc_mcu7t3v3__fillcap_16
XFILLER_35_244 VDD VDD VSS VSS gf180mcu_as_sc_mcu7t3v3__fillcap_16
XFILLER_12_18 VDD VDD VSS VSS gf180mcu_as_sc_mcu7t3v3__fillcap_16
XTAP_TAPCELL_ROW_28_217 VDD VSS gf180mcu_as_sc_mcu7t3v3__tap_2
XFILLER_5_104 VDD VDD VSS VSS gf180mcu_as_sc_mcu7t3v3__fillcap_16
XTAP_TAPCELL_ROW_5_115 VDD VSS gf180mcu_as_sc_mcu7t3v3__tap_2
XTAP_TAPCELL_ROW_42_286 VDD VSS gf180mcu_as_sc_mcu7t3v3__tap_2
XFILLER_40_291 VDD VDD VSS VSS gf180mcu_as_sc_mcu7t3v3__fill_1
XFILLER_32_247 VDD VDD VSS VSS gf180mcu_as_sc_mcu7t3v3__fillcap_16
XFILLER_17_244 VDD VDD VSS VSS gf180mcu_as_sc_mcu7t3v3__fillcap_16
XFILLER_4_85 VDD VDD VSS VSS gf180mcu_as_sc_mcu7t3v3__fillcap_16
XTAP_TAPCELL_ROW_33_242 VDD VSS gf180mcu_as_sc_mcu7t3v3__tap_2
XFILLER_2_107 VDD VDD VSS VSS gf180mcu_as_sc_mcu7t3v3__fillcap_16
XFILLER_14_247 VDD VDD VSS VSS gf180mcu_as_sc_mcu7t3v3__fillcap_16
XFILLER_14_225 VDD VDD VSS VSS gf180mcu_as_sc_mcu7t3v3__fillcap_16
XFILLER_13_72 VDD VDD VSS VSS gf180mcu_as_sc_mcu7t3v3__fillcap_16
XFILLER_13_50 VDD VDD VSS VSS gf180mcu_as_sc_mcu7t3v3__fillcap_16
XTAP_TAPCELL_ROW_0_86 VDD VSS gf180mcu_as_sc_mcu7t3v3__tap_2
XFILLER_28_317 VDD VDD VSS VSS gf180mcu_as_sc_mcu7t3v3__fillcap_8
XFILLER_11_228 VDD VDD VSS VSS gf180mcu_as_sc_mcu7t3v3__fillcap_16
XFILLER_11_206 VDD VDD VSS VSS gf180mcu_as_sc_mcu7t3v3__fillcap_4
XFILLER_20_18 VDD VDD VSS VSS gf180mcu_as_sc_mcu7t3v3__fillcap_16
XFILLER_42_172 VDD VDD VSS VSS gf180mcu_as_sc_mcu7t3v3__fillcap_4
XFILLER_34_139 VDD VDD VSS VSS gf180mcu_as_sc_mcu7t3v3__fillcap_8
XFILLER_19_158 VDD VDD VSS VSS gf180mcu_as_sc_mcu7t3v3__fillcap_16
XFILLER_19_136 VDD VDD VSS VSS gf180mcu_as_sc_mcu7t3v3__fillcap_4
XFILLER_25_2 VDD VDD VSS VSS gf180mcu_as_sc_mcu7t3v3__fillcap_16
XFILLER_15_18 VDD VDD VSS VSS gf180mcu_as_sc_mcu7t3v3__fillcap_16
XFILLER_21_72 VDD VDD VSS VSS gf180mcu_as_sc_mcu7t3v3__fillcap_16
XFILLER_21_50 VDD VDD VSS VSS gf180mcu_as_sc_mcu7t3v3__fillcap_16
XFILLER_16_139 VDD VDD VSS VSS gf180mcu_as_sc_mcu7t3v3__fillcap_16
XFILLER_30_131 VDD VDD VSS VSS gf180mcu_as_sc_mcu7t3v3__fill_2
XTAP_TAPCELL_ROW_17_167 VDD VSS gf180mcu_as_sc_mcu7t3v3__tap_2
XPHY_EDGE_ROW_15_Left_58 VDD VSS gf180mcu_as_sc_mcu7t3v3__tap_2
XFILLER_29_286 VDD VDD VSS VSS gf180mcu_as_sc_mcu7t3v3__fill_1
XFILLER_21_142 VDD VDD VSS VSS gf180mcu_as_sc_mcu7t3v3__fillcap_16
XFILLER_21_120 VDD VDD VSS VSS gf180mcu_as_sc_mcu7t3v3__fillcap_16
XFILLER_35_212 VDD VDD VSS VSS gf180mcu_as_sc_mcu7t3v3__fillcap_16
XTAP_TAPCELL_ROW_22_192 VDD VSS gf180mcu_as_sc_mcu7t3v3__tap_2
XTAP_TAPCELL_ROW_28_218 VDD VSS gf180mcu_as_sc_mcu7t3v3__tap_2
XTAP_TAPCELL_ROW_5_116 VDD VSS gf180mcu_as_sc_mcu7t3v3__tap_2
XFILLER_7_190 VDD VDD VSS VSS gf180mcu_as_sc_mcu7t3v3__fillcap_16
XTAP_TAPCELL_ROW_42_287 VDD VSS gf180mcu_as_sc_mcu7t3v3__tap_2
XFILLER_32_237 VDD VDD VSS VSS gf180mcu_as_sc_mcu7t3v3__fill_1
Xclkbuf_2_0__f_clk VDD VDD VSS VSS clkbuf_0_clk/Y _93_/CLK gf180mcu_as_sc_mcu7t3v3__clkbuff_12
XFILLER_17_212 VDD VDD VSS VSS gf180mcu_as_sc_mcu7t3v3__fillcap_16
XFILLER_4_171 VDD VDD VSS VSS gf180mcu_as_sc_mcu7t3v3__fillcap_4
XFILLER_4_193 VDD VDD VSS VSS gf180mcu_as_sc_mcu7t3v3__fillcap_16
XFILLER_23_18 VDD VDD VSS VSS gf180mcu_as_sc_mcu7t3v3__fillcap_16
XPHY_EDGE_ROW_18_Left_61 VDD VSS gf180mcu_as_sc_mcu7t3v3__tap_2
XFILLER_4_53 VDD VDD VSS VSS gf180mcu_as_sc_mcu7t3v3__fillcap_16
XFILLER_1_174 VDD VDD VSS VSS gf180mcu_as_sc_mcu7t3v3__fillcap_16
XTAP_TAPCELL_ROW_0_87 VDD VSS gf180mcu_as_sc_mcu7t3v3__tap_2
XFILLER_28_329 VDD VDD VSS VSS gf180mcu_as_sc_mcu7t3v3__fill_2
XFILLER_18_18 VDD VDD VSS VSS gf180mcu_as_sc_mcu7t3v3__fillcap_16
XFILLER_42_310 VDD VDD VSS VSS gf180mcu_as_sc_mcu7t3v3__fillcap_8
XPHY_EDGE_ROW_3_Left_46 VDD VSS gf180mcu_as_sc_mcu7t3v3__tap_2
XFILLER_37_137 VDD VDD VSS VSS gf180mcu_as_sc_mcu7t3v3__fill_2
XFILLER_10_295 VDD VDD VSS VSS gf180mcu_as_sc_mcu7t3v3__fillcap_16
XFILLER_42_140 VDD VDD VSS VSS gf180mcu_as_sc_mcu7t3v3__fillcap_8
XFILLER_34_107 VDD VDD VSS VSS gf180mcu_as_sc_mcu7t3v3__fillcap_16
XFILLER_19_104 VDD VDD VSS VSS gf180mcu_as_sc_mcu7t3v3__fillcap_16
XFILLER_19_72 VDD VDD VSS VSS gf180mcu_as_sc_mcu7t3v3__fillcap_16
XFILLER_19_50 VDD VDD VSS VSS gf180mcu_as_sc_mcu7t3v3__fillcap_16
XFILLER_10_85 VDD VDD VSS VSS gf180mcu_as_sc_mcu7t3v3__fillcap_16
XFILLER_33_173 VDD VDD VSS VSS gf180mcu_as_sc_mcu7t3v3__fillcap_16
XFILLER_31_18 VDD VDD VSS VSS gf180mcu_as_sc_mcu7t3v3__fillcap_16
XFILLER_18_2 VDD VDD VSS VSS gf180mcu_as_sc_mcu7t3v3__fillcap_16
XFILLER_0_206 VDD VDD VSS VSS gf180mcu_as_sc_mcu7t3v3__fillcap_16
XFILLER_16_107 VDD VDD VSS VSS gf180mcu_as_sc_mcu7t3v3__fillcap_16
XFILLER_8_317 VDD VDD VSS VSS gf180mcu_as_sc_mcu7t3v3__fillcap_8
XFILLER_38_232 VDD VDD VSS VSS gf180mcu_as_sc_mcu7t3v3__fillcap_8
XTAP_TAPCELL_ROW_17_168 VDD VSS gf180mcu_as_sc_mcu7t3v3__tap_2
XFILLER_42_17 VDD VDD VSS VSS gf180mcu_as_sc_mcu7t3v3__fillcap_16
XFILLER_26_18 VDD VDD VSS VSS gf180mcu_as_sc_mcu7t3v3__fillcap_16
XPHY_EDGE_ROW_5_Right_5 VDD VSS gf180mcu_as_sc_mcu7t3v3__tap_2
XPHY_EDGE_ROW_32_Left_75 VDD VSS gf180mcu_as_sc_mcu7t3v3__tap_2
XTAP_TAPCELL_ROW_22_193 VDD VSS gf180mcu_as_sc_mcu7t3v3__tap_2
XTAP_TAPCELL_ROW_36_252 VDD VSS gf180mcu_as_sc_mcu7t3v3__tap_2
XTAP_TAPCELL_ROW_28_219 VDD VSS gf180mcu_as_sc_mcu7t3v3__tap_2
XFILLER_26_279 VDD VDD VSS VSS gf180mcu_as_sc_mcu7t3v3__fillcap_16
XFILLER_27_72 VDD VDD VSS VSS gf180mcu_as_sc_mcu7t3v3__fillcap_16
XFILLER_27_50 VDD VDD VSS VSS gf180mcu_as_sc_mcu7t3v3__fillcap_16
XFILLER_31_260 VDD VDD VSS VSS gf180mcu_as_sc_mcu7t3v3__fillcap_16
Xfanout20 VDD VDD VSS VSS _68_/A _84_/B gf180mcu_as_sc_mcu7t3v3__buff_2
XTAP_TAPCELL_ROW_24_200 VDD VSS gf180mcu_as_sc_mcu7t3v3__tap_2
XFILLER_1_142 VDD VDD VSS VSS gf180mcu_as_sc_mcu7t3v3__fillcap_16
XFILLER_1_120 VDD VDD VSS VSS gf180mcu_as_sc_mcu7t3v3__fillcap_16
XTAP_TAPCELL_ROW_30_225 VDD VSS gf180mcu_as_sc_mcu7t3v3__tap_2
XFILLER_13_282 VDD VDD VSS VSS gf180mcu_as_sc_mcu7t3v3__fillcap_16
XFILLER_13_260 VDD VDD VSS VSS gf180mcu_as_sc_mcu7t3v3__fillcap_16
XTAP_TAPCELL_ROW_0_88 VDD VSS gf180mcu_as_sc_mcu7t3v3__tap_2
X_99_ VDD VDD VSS VSS _99_/CLK _99_/D _99_/Q gf180mcu_as_sc_mcu7t3v3__dfxtp_2
XFILLER_34_18 VDD VDD VSS VSS gf180mcu_as_sc_mcu7t3v3__fillcap_16
XFILLER_42_322 VDD VDD VSS VSS gf180mcu_as_sc_mcu7t3v3__fill_1
XFILLER_37_149 VDD VDD VSS VSS gf180mcu_as_sc_mcu7t3v3__fillcap_4
XFILLER_27_330 VDD VDD VSS VSS gf180mcu_as_sc_mcu7t3v3__fill_1
XFILLER_1_88 VDD VDD VSS VSS gf180mcu_as_sc_mcu7t3v3__fillcap_16
XFILLER_1_66 VDD VDD VSS VSS gf180mcu_as_sc_mcu7t3v3__fillcap_4
XFILLER_10_241 VDD VDD VSS VSS gf180mcu_as_sc_mcu7t3v3__fillcap_4
XFILLER_10_263 VDD VDD VSS VSS gf180mcu_as_sc_mcu7t3v3__fillcap_16
XFILLER_36_193 VDD VDD VSS VSS gf180mcu_as_sc_mcu7t3v3__fillcap_16
XFILLER_36_160 VDD VDD VSS VSS gf180mcu_as_sc_mcu7t3v3__fillcap_8
XFILLER_29_18 VDD VDD VSS VSS gf180mcu_as_sc_mcu7t3v3__fillcap_16
XFILLER_24_311 VDD VDD VSS VSS gf180mcu_as_sc_mcu7t3v3__fillcap_4
XFILLER_42_163 VDD VDD VSS VSS gf180mcu_as_sc_mcu7t3v3__fillcap_4